examples/cigre/opendss/mv_VLN_Node.Txt

LINE-GROUND and LINE-LINE VOLTAGES BY BUS & NODE

Bus  Node    VLN (kV)   Angle      pu     Base kV    Node-Node   VLL (kV)  Angle      pu

B1 . 1       11.547 /_    0.0         1    20.000        1-2         20 /_   30.0         1
   - 2       11.547 /_ -120.0         1    20.000        2-3         20 /_  -90.0         1
   - 3       11.547 /_  120.0         1    20.000        3-1         20 /_  150.0         1
B2 . 1       11.548 /_    0.0    1.0001    20.000        1-2     20.001 /_   30.0    1.0001
   - 2       11.548 /_ -120.0    1.0001    20.000        2-3     20.001 /_  -90.0    1.0001
   - 3       11.548 /_  120.0    1.0001    20.000        3-1     20.001 /_  150.0    1.0001
